<edges>
    <edge id="highway" from="start" to="end" numLanes="1" speed="42"/>
</edges>
