<?xml version="1.0" encoding="UTF-8"?>

<!-- generated on 2026-03-08 20:55:37 by Eclipse SUMO netconvert Version 1.20.0
<configuration xmlns:xsi="http://www.w3.org/2001/XMLSchema-instance" xsi:noNamespaceSchemaLocation="http://sumo.dlr.de/xsd/netconvertConfiguration.xsd">

    <input>
        <node-files value="highway_nodes.nod.xml"/>
        <edge-files value="highway_edges.edg.xml"/>
    </input>

    <output>
        <output-file value="highway.net.xml"/>
    </output>

</configuration>
-->

<net version="1.20" junctionCornerDetail="5" limitTurnSpeed="5.50" xmlns:xsi="http://www.w3.org/2001/XMLSchema-instance" xsi:noNamespaceSchemaLocation="http://sumo.dlr.de/xsd/net_file.xsd">

    <location netOffset="0.00,0.00" convBoundary="0.00,0.00,50000.00,0.00" origBoundary="0.00,0.00,50000.00,0.00" projParameter="!"/>

    <edge id="highway" from="start" to="end" priority="-1">
        <lane id="highway_0" index="0" speed="42.00" length="50000.00" shape="0.00,-1.60 50000.00,-1.60"/>
    </edge>

    <junction id="end" type="dead_end" x="50000.00" y="0.00" incLanes="highway_0" intLanes="" shape="50000.00,-3.20 50000.00,0.00"/>
    <junction id="start" type="dead_end" x="0.00" y="0.00" incLanes="" intLanes="" shape="0.00,0.00 0.00,-3.20"/>

</net>
