<nodes>
    <node id="start" x="0.0" y="0.0"/>
    <node id="end"   x="50000.0" y="0.0"/>
</nodes>
